*SPEF "ieee 1481-1999"
*DESIGN "RAM32"
*DATE "11:11:11 Fri 11 11, 1111"
*VENDOR "OpenRCX"
*PROGRAM "Parallel Extraction"
*VERSION "1.0"
*DESIGN_FLOW "NAME_SCOPE LOCAL" "PIN_CAP NONE"
*DIVIDER /
*DELIMITER :
*BUS_DELIMITER []
*T_UNIT 1 NS
*C_UNIT 1 PF
*R_UNIT 1 OHM
*L_UNIT 1 HENRY

*NAME_MAP
*1 A0[0]
*2 A0[1]
*3 A0[2]
*4 A0[3]
*5 A0[4]
*6 CLK
*7 Di0[0]
*8 Di0[10]
*9 Di0[11]
*10 Di0[12]
*11 Di0[13]
*12 Di0[14]
*13 Di0[15]
*14 Di0[16]
*15 Di0[17]
*16 Di0[18]
*17 Di0[19]
*18 Di0[1]
*19 Di0[20]
*20 Di0[21]
*21 Di0[22]
*22 Di0[23]
*23 Di0[24]
*24 Di0[25]
*25 Di0[26]
*26 Di0[27]
*27 Di0[28]
*28 Di0[29]
*29 Di0[2]
*30 Di0[30]
*31 Di0[31]
*32 Di0[3]
*33 Di0[4]
*34 Di0[5]
*35 Di0[6]
*36 Di0[7]
*37 Di0[8]
*38 Di0[9]
*39 Do0[0]
*40 Do0[10]
*41 Do0[11]
*42 Do0[12]
*43 Do0[13]
*44 Do0[14]
*45 Do0[15]
*46 Do0[16]
*47 Do0[17]
*48 Do0[18]
*49 Do0[19]
*50 Do0[1]
*51 Do0[20]
*52 Do0[21]
*53 Do0[22]
*54 Do0[23]
*55 Do0[24]
*56 Do0[25]
*57 Do0[26]
*58 Do0[27]
*59 Do0[28]
*60 Do0[29]
*61 Do0[2]
*62 Do0[30]
*63 Do0[31]
*64 Do0[3]
*65 Do0[4]
*66 Do0[5]
*67 Do0[6]
*68 Do0[7]
*69 Do0[8]
*70 Do0[9]
*71 EN0
*74 WE0[0]
*75 WE0[1]
*76 WE0[2]
*77 WE0[3]
*78 A0BUF\[0\]\.X
*79 A0BUF\[1\]\.X
*80 A0BUF\[2\]\.X
*81 A0BUF\[3\]\.X
*82 A0BUF\[4\]\.X
*83 DEC0\.EN
*84 DIBUF\[0\]\.X
*85 DIBUF\[10\]\.X
*86 DIBUF\[11\]\.X
*87 DIBUF\[12\]\.X
*88 DIBUF\[13\]\.X
*89 DIBUF\[14\]\.X
*90 DIBUF\[15\]\.X
*91 DIBUF\[16\]\.X
*92 DIBUF\[17\]\.X
*93 DIBUF\[18\]\.X
*94 DIBUF\[19\]\.X
*95 DIBUF\[1\]\.X
*96 DIBUF\[20\]\.X
*97 DIBUF\[21\]\.X
*98 DIBUF\[22\]\.X
*99 DIBUF\[23\]\.X
*100 DIBUF\[24\]\.X
*101 DIBUF\[25\]\.X
*102 DIBUF\[26\]\.X
*103 DIBUF\[27\]\.X
*104 DIBUF\[28\]\.X
*105 DIBUF\[29\]\.X
*106 DIBUF\[2\]\.X
*107 DIBUF\[30\]\.X
*108 DIBUF\[31\]\.X
*109 DIBUF\[3\]\.X
*110 DIBUF\[4\]\.X
*111 DIBUF\[5\]\.X
*112 DIBUF\[6\]\.X
*113 DIBUF\[7\]\.X
*114 DIBUF\[8\]\.X
*115 DIBUF\[9\]\.X
*116 Do0MUX\.A0\[0\]
*117 Do0MUX\.A0\[10\]
*118 Do0MUX\.A0\[11\]
*119 Do0MUX\.A0\[12\]
*120 Do0MUX\.A0\[13\]
*121 Do0MUX\.A0\[14\]
*122 Do0MUX\.A0\[15\]
*123 Do0MUX\.A0\[16\]
*124 Do0MUX\.A0\[17\]
*125 Do0MUX\.A0\[18\]
*126 Do0MUX\.A0\[19\]
*127 Do0MUX\.A0\[1\]
*128 Do0MUX\.A0\[20\]
*129 Do0MUX\.A0\[21\]
*130 Do0MUX\.A0\[22\]
*131 Do0MUX\.A0\[23\]
*132 Do0MUX\.A0\[24\]
*133 Do0MUX\.A0\[25\]
*134 Do0MUX\.A0\[26\]
*135 Do0MUX\.A0\[27\]
*136 Do0MUX\.A0\[28\]
*137 Do0MUX\.A0\[29\]
*138 Do0MUX\.A0\[2\]
*139 Do0MUX\.A0\[30\]
*140 Do0MUX\.A0\[31\]
*141 Do0MUX\.A0\[3\]
*142 Do0MUX\.A0\[4\]
*143 Do0MUX\.A0\[5\]
*144 Do0MUX\.A0\[6\]
*145 Do0MUX\.A0\[7\]
*146 Do0MUX\.A0\[8\]
*147 Do0MUX\.A0\[9\]
*148 Do0MUX\.A1\[0\]
*149 Do0MUX\.A1\[10\]
*150 Do0MUX\.A1\[11\]
*151 Do0MUX\.A1\[12\]
*152 Do0MUX\.A1\[13\]
*153 Do0MUX\.A1\[14\]
*154 Do0MUX\.A1\[15\]
*155 Do0MUX\.A1\[16\]
*156 Do0MUX\.A1\[17\]
*157 Do0MUX\.A1\[18\]
*158 Do0MUX\.A1\[19\]
*159 Do0MUX\.A1\[1\]
*160 Do0MUX\.A1\[20\]
*161 Do0MUX\.A1\[21\]
*162 Do0MUX\.A1\[22\]
*163 Do0MUX\.A1\[23\]
*164 Do0MUX\.A1\[24\]
*165 Do0MUX\.A1\[25\]
*166 Do0MUX\.A1\[26\]
*167 Do0MUX\.A1\[27\]
*168 Do0MUX\.A1\[28\]
*169 Do0MUX\.A1\[29\]
*170 Do0MUX\.A1\[2\]
*171 Do0MUX\.A1\[30\]
*172 Do0MUX\.A1\[31\]
*173 Do0MUX\.A1\[3\]
*174 Do0MUX\.A1\[4\]
*175 Do0MUX\.A1\[5\]
*176 Do0MUX\.A1\[6\]
*177 Do0MUX\.A1\[7\]
*178 Do0MUX\.A1\[8\]
*179 Do0MUX\.A1\[9\]
*180 Do0MUX\.SEL\[0\]
*181 Do0MUX\.SEL\[1\]
*182 Do0MUX\.SEL\[2\]
*183 Do0MUX\.SEL\[3\]
*184 SLICE_16\[0\]\.RAM16\.A0BUF\[0\]\.X
*185 SLICE_16\[0\]\.RAM16\.A0BUF\[1\]\.X
*186 SLICE_16\[0\]\.RAM16\.A0BUF\[2\]\.X
*187 SLICE_16\[0\]\.RAM16\.A0BUF\[3\]\.X
*188 SLICE_16\[0\]\.RAM16\.BYTE\[0\]\.FLOATBUF0\[0\]\.A
*189 SLICE_16\[0\]\.RAM16\.BYTE\[0\]\.FLOATBUF0\[0\]\.TE_B
*190 SLICE_16\[0\]\.RAM16\.BYTE\[0\]\.FLOATBUF0\[0\]\.Z
*191 SLICE_16\[0\]\.RAM16\.BYTE\[0\]\.FLOATBUF0\[1\]\.Z
*192 SLICE_16\[0\]\.RAM16\.BYTE\[0\]\.FLOATBUF0\[2\]\.Z
*193 SLICE_16\[0\]\.RAM16\.BYTE\[0\]\.FLOATBUF0\[3\]\.Z
*194 SLICE_16\[0\]\.RAM16\.BYTE\[0\]\.FLOATBUF0\[4\]\.Z
*195 SLICE_16\[0\]\.RAM16\.BYTE\[0\]\.FLOATBUF0\[5\]\.Z
*196 SLICE_16\[0\]\.RAM16\.BYTE\[0\]\.FLOATBUF0\[6\]\.Z
*197 SLICE_16\[0\]\.RAM16\.BYTE\[0\]\.FLOATBUF0\[7\]\.Z
*198 SLICE_16\[0\]\.RAM16\.BYTE\[1\]\.FLOATBUF0\[10\]\.A
*199 SLICE_16\[0\]\.RAM16\.BYTE\[1\]\.FLOATBUF0\[10\]\.TE_B
*200 SLICE_16\[0\]\.RAM16\.BYTE\[1\]\.FLOATBUF0\[10\]\.Z
*201 SLICE_16\[0\]\.RAM16\.BYTE\[1\]\.FLOATBUF0\[11\]\.Z
*202 SLICE_16\[0\]\.RAM16\.BYTE\[1\]\.FLOATBUF0\[12\]\.Z
*203 SLICE_16\[0\]\.RAM16\.BYTE\[1\]\.FLOATBUF0\[13\]\.Z
*204 SLICE_16\[0\]\.RAM16\.BYTE\[1\]\.FLOATBUF0\[14\]\.Z
*205 SLICE_16\[0\]\.RAM16\.BYTE\[1\]\.FLOATBUF0\[15\]\.Z
*206 SLICE_16\[0\]\.RAM16\.BYTE\[1\]\.FLOATBUF0\[8\]\.Z
*207 SLICE_16\[0\]\.RAM16\.BYTE\[1\]\.FLOATBUF0\[9\]\.Z
*208 SLICE_16\[0\]\.RAM16\.BYTE\[2\]\.FLOATBUF0\[16\]\.A
*209 SLICE_16\[0\]\.RAM16\.BYTE\[2\]\.FLOATBUF0\[16\]\.TE_B
*210 SLICE_16\[0\]\.RAM16\.BYTE\[2\]\.FLOATBUF0\[16\]\.Z
*211 SLICE_16\[0\]\.RAM16\.BYTE\[2\]\.FLOATBUF0\[17\]\.Z
*212 SLICE_16\[0\]\.RAM16\.BYTE\[2\]\.FLOATBUF0\[18\]\.Z
*213 SLICE_16\[0\]\.RAM16\.BYTE\[2\]\.FLOATBUF0\[19\]\.Z
*214 SLICE_16\[0\]\.RAM16\.BYTE\[2\]\.FLOATBUF0\[20\]\.Z
*215 SLICE_16\[0\]\.RAM16\.BYTE\[2\]\.FLOATBUF0\[21\]\.Z
*216 SLICE_16\[0\]\.RAM16\.BYTE\[2\]\.FLOATBUF0\[22\]\.Z
*217 SLICE_16\[0\]\.RAM16\.BYTE\[2\]\.FLOATBUF0\[23\]\.Z
*218 SLICE_16\[0\]\.RAM16\.BYTE\[3\]\.FLOATBUF0\[24\]\.A
*219 SLICE_16\[0\]\.RAM16\.BYTE\[3\]\.FLOATBUF0\[24\]\.TE_B
*220 SLICE_16\[0\]\.RAM16\.BYTE\[3\]\.FLOATBUF0\[24\]\.Z
*221 SLICE_16\[0\]\.RAM16\.BYTE\[3\]\.FLOATBUF0\[25\]\.Z
*222 SLICE_16\[0\]\.RAM16\.BYTE\[3\]\.FLOATBUF0\[26\]\.Z
*223 SLICE_16\[0\]\.RAM16\.BYTE\[3\]\.FLOATBUF0\[27\]\.Z
*224 SLICE_16\[0\]\.RAM16\.BYTE\[3\]\.FLOATBUF0\[28\]\.Z
*225 SLICE_16\[0\]\.RAM16\.BYTE\[3\]\.FLOATBUF0\[29\]\.Z
*226 SLICE_16\[0\]\.RAM16\.BYTE\[3\]\.FLOATBUF0\[30\]\.Z
*227 SLICE_16\[0\]\.RAM16\.BYTE\[3\]\.FLOATBUF0\[31\]\.Z
*228 SLICE_16\[0\]\.RAM16\.CLKBUF\.X
*229 SLICE_16\[0\]\.RAM16\.DEC0\.EN
*230 SLICE_16\[0\]\.RAM16\.Do0_REG\.CLKBUF\[0\]
*231 SLICE_16\[0\]\.RAM16\.Do0_REG\.CLKBUF\[1\]
*232 SLICE_16\[0\]\.RAM16\.Do0_REG\.CLKBUF\[2\]
*233 SLICE_16\[0\]\.RAM16\.Do0_REG\.CLKBUF\[3\]
*234 SLICE_16\[0\]\.RAM16\.Do0_REG\.CLK_buf
*235 SLICE_16\[0\]\.RAM16\.EN0
*236 SLICE_16\[0\]\.RAM16\.SLICE\[0\]\.RAM8\.CLKBUF\.X
*237 SLICE_16\[0\]\.RAM16\.SLICE\[0\]\.RAM8\.DEC0\.A_buf\[0\]
*238 SLICE_16\[0\]\.RAM16\.SLICE\[0\]\.RAM8\.DEC0\.A_buf\[1\]
*239 SLICE_16\[0\]\.RAM16\.SLICE\[0\]\.RAM8\.DEC0\.A_buf\[2\]
*240 SLICE_16\[0\]\.RAM16\.SLICE\[0\]\.RAM8\.DEC0\.EN
*241 SLICE_16\[0\]\.RAM16\.SLICE\[0\]\.RAM8\.DEC0\.EN_buf
*242 SLICE_16\[0\]\.RAM16\.SLICE\[0\]\.RAM8\.WEBUF\[0\]\.A
*243 SLICE_16\[0\]\.RAM16\.SLICE\[0\]\.RAM8\.WEBUF\[0\]\.X
*244 SLICE_16\[0\]\.RAM16\.SLICE\[0\]\.RAM8\.WEBUF\[1\]\.A
*245 SLICE_16\[0\]\.RAM16\.SLICE\[0\]\.RAM8\.WEBUF\[1\]\.X
*246 SLICE_16\[0\]\.RAM16\.SLICE\[0\]\.RAM8\.WEBUF\[2\]\.A
*247 SLICE_16\[0\]\.RAM16\.SLICE\[0\]\.RAM8\.WEBUF\[2\]\.X
*248 SLICE_16\[0\]\.RAM16\.SLICE\[0\]\.RAM8\.WEBUF\[3\]\.A
*249 SLICE_16\[0\]\.RAM16\.SLICE\[0\]\.RAM8\.WEBUF\[3\]\.X
*250 SLICE_16\[0\]\.RAM16\.SLICE\[0\]\.RAM8\.WORD\[0\]\.W\.BYTE\[0\]\.B\.CLK
*251 SLICE_16\[0\]\.RAM16\.SLICE\[0\]\.RAM8\.WORD\[0\]\.W\.BYTE\[0\]\.B\.CLK_B
*252 SLICE_16\[0\]\.RAM16\.SLICE\[0\]\.RAM8\.WORD\[0\]\.W\.BYTE\[0\]\.B\.GCLK
*253 SLICE_16\[0\]\.RAM16\.SLICE\[0\]\.RAM8\.WORD\[0\]\.W\.BYTE\[0\]\.B\.Q_WIRE\[0\]
*254 SLICE_16\[0\]\.RAM16\.SLICE\[0\]\.RAM8\.WORD\[0\]\.W\.BYTE\[0\]\.B\.Q_WIRE\[1\]
*255 SLICE_16\[0\]\.RAM16\.SLICE\[0\]\.RAM8\.WORD\[0\]\.W\.BYTE\[0\]\.B\.Q_WIRE\[2\]
*256 SLICE_16\[0\]\.RAM16\.SLICE\[0\]\.RAM8\.WORD\[0\]\.W\.BYTE\[0\]\.B\.Q_WIRE\[3\]
*257 SLICE_16\[0\]\.RAM16\.SLICE\[0\]\.RAM8\.WORD\[0\]\.W\.BYTE\[0\]\.B\.Q_WIRE\[4\]
*258 SLICE_16\[0\]\.RAM16\.SLICE\[0\]\.RAM8\.WORD\[0\]\.W\.BYTE\[0\]\.B\.Q_WIRE\[5\]
*259 SLICE_16\[0\]\.RAM16\.SLICE\[0\]\.RAM8\.WORD\[0\]\.W\.BYTE\[0\]\.B\.Q_WIRE\[6\]
*260 SLICE_16\[0\]\.RAM16\.SLICE\[0\]\.RAM8\.WORD\[0\]\.W\.BYTE\[0\]\.B\.Q_WIRE\[7\]
*261 SLICE_16\[0\]\.RAM16\.SLICE\[0\]\.RAM8\.WORD\[0\]\.W\.BYTE\[0\]\.B\.SEL0
*262 SLICE_16\[0\]\.RAM16\.SLICE\[0\]\.RAM8\.WORD\[0\]\.W\.BYTE\[0\]\.B\.SEL0_B
*263 SLICE_16\[0\]\.RAM16\.SLICE\[0\]\.RAM8\.WORD\[0\]\.W\.BYTE\[0\]\.B\.WE0_WIRE
*264 SLICE_16\[0\]\.RAM16\.SLICE\[0\]\.RAM8\.WORD\[0\]\.W\.BYTE\[1\]\.B\.CLK_B
*265 SLICE_16\[0\]\.RAM16\.SLICE\[0\]\.RAM8\.WORD\[0\]\.W\.BYTE\[1\]\.B\.GCLK
*266 SLICE_16\[0\]\.RAM16\.SLICE\[0\]\.RAM8\.WORD\[0\]\.W\.BYTE\[1\]\.B\.Q_WIRE\[0\]
*267 SLICE_16\[0\]\.RAM16\.SLICE\[0\]\.RAM8\.WORD\[0\]\.W\.BYTE\[1\]\.B\.Q_WIRE\[1\]
*268 SLICE_16\[0\]\.RAM16\.SLICE\[0\]\.RAM8\.WORD\[0\]\.W\.BYTE\[1\]\.B\.Q_WIRE\[2\]
*269 SLICE_16\[0\]\.RAM16\.SLICE\[0\]\.RAM8\.WORD\[0\]\.W\.BYTE\[1\]\.B\.Q_WIRE\[3\]
*270 SLICE_16\[0\]\.RAM16\.SLICE\[0\]\.RAM8\.WORD\[0\]\.W\.BYTE\[1\]\.B\.Q_WIRE\[4\]
*271 SLICE_16\[0\]\.RAM16\.SLICE\[0\]\.RAM8\.WORD\[0\]\.W\.BYTE\[1\]\.B\.Q_WIRE\[5\]
*272 SLICE_16\[0\]\.RAM16\.SLICE\[0\]\.RAM8\.WORD\[0\]\.W\.BYTE\[1\]\.B\.Q_WIRE\[6\]
*273 SLICE_16\[0\]\.RAM16\.SLICE\[0\]\.RAM8\.WORD\[0\]\.W\.BYTE\[1\]\.B\.Q_WIRE\[7\]
*274 SLICE_16\[0\]\.RAM16\.SLICE\[0\]\.RAM8\.WORD\[0\]\.W\.BYTE\[1\]\.B\.SEL0_B
*275 SLICE_16\[0\]\.RAM16\.SLICE\[0\]\.RAM8\.WORD\[0\]\.W\.BYTE\[1\]\.B\.WE0_WIRE
*276 SLICE_16\[0\]\.RAM16\.SLICE\[0\]\.RAM8\.WORD\[0\]\.W\.BYTE\[2\]\.B\.CLK_B
*277 SLICE_16\[0\]\.RAM16\.SLICE\[0\]\.RAM8\.WORD\[0\]\.W\.BYTE\[2\]\.B\.GCLK
*278 SLICE_16\[0\]\.RAM16\.SLICE\[0\]\.RAM8\.WORD\[0\]\.W\.BYTE\[2\]\.B\.Q_WIRE\[0\]
*279 SLICE_16\[0\]\.RAM16\.SLICE\[0\]\.RAM8\.WORD\[0\]\.W\.BYTE\[2\]\.B\.Q_WIRE\[1\]
*280 SLICE_16\[0\]\.RAM16\.SLICE\[0\]\.RAM8\.WORD\[0\]\.W\.BYTE\[2\]\.B\.Q_WIRE\[2\]
*281 SLICE_16\[0\]\.RAM16\.SLICE\[0\]\.RAM8\.WORD\[0\]\.W\.BYTE\[2\]\.B\.Q_WIRE\[3\]
*282 SLICE_16\[0\]\.RAM16\.SLICE\[0\]\.RAM8\.WORD\[0\]\.W\.BYTE\[2\]\.B\.Q_WIRE\[4\]
*283 SLICE_16\[0\]\.RAM16\.SLICE\[0\]\.RAM8\.WORD\[0\]\.W\.BYTE\[2\]\.B\.Q_WIRE\[5\]
*284 SLICE_16\[0\]\.RAM16\.SLICE\[0\]\.RAM8\.WORD\[0\]\.W\.BYTE\[2\]\.B\.Q_WIRE\[6\]
*285 SLICE_16\[0\]\.RAM16\.SLICE\[0\]\.RAM8\.WORD\[0\]\.W\.BYTE\[2\]\.B\.Q_WIRE\[7\]
*286 SLICE_16\[0\]\.RAM16\.SLICE\[0\]\.RAM8\.WORD\[0\]\.W\.BYTE\[2\]\.B\.SEL0_B
*287 SLICE_16\[0\]\.RAM16\.SLICE\[0\]\.RAM8\.WORD\[0\]\.W\.BYTE\[2\]\.B\.WE0_WIRE
*288 SLICE_16\[0\]\.RAM16\.SLICE\[0\]\.RAM8\.WORD\[0\]\.W\.BYTE\[3\]\.B\.CLK_B
*289 SLICE_16\[0\]\.RAM16\.SLICE\[0\]\.RAM8\.WORD\[0\]\.W\.BYTE\[3\]\.B\.GCLK
*290 SLICE_16\[0\]\.RAM16\.SLICE\[0\]\.RAM8\.WORD\[0\]\.W\.BYTE\[3\]\.B\.Q_WIRE\[0\]
*291 SLICE_16\[0\]\.RAM16\.SLICE\[0\]\.RAM8\.WORD\[0\]\.W\.BYTE\[3\]\.B\.Q_WIRE\[1\]
*292 SLICE_16\[0\]\.RAM16\.SLICE\[0\]\.RAM8\.WORD\[0\]\.W\.BYTE\[3\]\.B\.Q_WIRE\[2\]
*293 SLICE_16\[0\]\.RAM16\.SLICE\[0\]\.RAM8\.WORD\[0\]\.W\.BYTE\[3\]\.B\.Q_WIRE\[3\]
*294 SLICE_16\[0\]\.RAM16\.SLICE\[0\]\.RAM8\.WORD\[0\]\.W\.BYTE\[3\]\.B\.Q_WIRE\[4\]
*295 SLICE_16\[0\]\.RAM16\.SLICE\[0\]\.RAM8\.WORD\[0\]\.W\.BYTE\[3\]\.B\.Q_WIRE\[5\]
*296 SLICE_16\[0\]\.RAM16\.SLICE\[0\]\.RAM8\.WORD\[0\]\.W\.BYTE\[3\]\.B\.Q_WIRE\[6\]
*297 SLICE_16\[0\]\.RAM16\.SLICE\[0\]\.RAM8\.WORD\[0\]\.W\.BYTE\[3\]\.B\.Q_WIRE\[7\]
*298 SLICE_16\[0\]\.RAM16\.SLICE\[0\]\.RAM8\.WORD\[0\]\.W\.BYTE\[3\]\.B\.SEL0_B
*299 SLICE_16\[0\]\.RAM16\.SLICE\[0\]\.RAM8\.WORD\[0\]\.W\.BYTE\[3\]\.B\.WE0_WIRE
*300 SLICE_16\[0\]\.RAM16\.SLICE\[0\]\.RAM8\.WORD\[0\]\.W\.SEL0
*301 SLICE_16\[0\]\.RAM16\.SLICE\[0\]\.RAM8\.WORD\[1\]\.W\.BYTE\[0\]\.B\.CLK
*302 SLICE_16\[0\]\.RAM16\.SLICE\[0\]\.RAM8\.WORD\[1\]\.W\.BYTE\[0\]\.B\.CLK_B
*303 SLICE_16\[0\]\.RAM16\.SLICE\[0\]\.RAM8\.WORD\[1\]\.W\.BYTE\[0\]\.B\.GCLK
*304 SLICE_16\[0\]\.RAM16\.SLICE\[0\]\.RAM8\.WORD\[1\]\.W\.BYTE\[0\]\.B\.Q_WIRE\[0\]
*305 SLICE_16\[0\]\.RAM16\.SLICE\[0\]\.RAM8\.WORD\[1\]\.W\.BYTE\[0\]\.B\.Q_WIRE\[1\]
*306 SLICE_16\[0\]\.RAM16\.SLICE\[0\]\.RAM8\.WORD\[1\]\.W\.BYTE\[0\]\.B\.Q_WIRE\[2\]
*307 SLICE_16\[0\]\.RAM16\.SLICE\[0\]\.RAM8\.WORD\[1\]\.W\.BYTE\[0\]\.B\.Q_WIRE\[3\]
*308 SLICE_16\[0\]\.RAM16\.SLICE\[0\]\.RAM8\.WORD\[1\]\.W\.BYTE\[0\]\.B\.Q_WIRE\[4\]
*309 SLICE_16\[0\]\.RAM16\.SLICE\[0\]\.RAM8\.WORD\[1\]\.W\.BYTE\[0\]\.B\.Q_WIRE\[5\]
*310 SLICE_16\[0\]\.RAM16\.SLICE\[0\]\.RAM8\.WORD\[1\]\.W\.BYTE\[0\]\.B\.Q_WIRE\[6\]
*311 SLICE_16\[0\]\.RAM16\.SLICE\[0\]\.RAM8\.WORD\[1\]\.W\.BYTE\[0\]\.B\.Q_WIRE\[7\]
*312 SLICE_16\[0\]\.RAM16\.SLICE\[0\]\.RAM8\.WORD\[1\]\.W\.BYTE\[0\]\.B\.SEL0
*313 SLICE_16\[0\]\.RAM16\.SLICE\[0\]\.RAM8\.WORD\[1\]\.W\.BYTE\[0\]\.B\.SEL0_B
*314 SLICE_16\[0\]\.RAM16\.SLICE\[0\]\.RAM8\.WORD\[1\]\.W\.BYTE\[0\]\.B\.WE0_WIRE
*315 SLICE_16\[0\]\.RAM16\.SLICE\[0\]\.RAM8\.WORD\[1\]\.W\.BYTE\[1\]\.B\.CLK_B
*316 SLICE_16\[0\]\.RAM16\.SLICE\[0\]\.RAM8\.WORD\[1\]\.W\.BYTE\[1\]\.B\.GCLK
*317 SLICE_16\[0\]\.RAM16\.SLICE\[0\]\.RAM8\.WORD\[1\]\.W\.BYTE\[1\]\.B\.Q_WIRE\[0\]
*318 SLICE_16\[0\]\.RAM16\.SLICE\[0\]\.RAM8\.WORD\[1\]\.W\.BYTE\[1\]\.B\.Q_WIRE\[1\]
*319 SLICE_16\[0\]\.RAM16\.SLICE\[0\]\.RAM8\.WORD\[1\]\.W\.BYTE\[1\]\.B\.Q_WIRE\[2\]
*320 SLICE_16\[0\]\.RAM16\.SLICE\[0\]\.RAM8\.WORD\[1\]\.W\.BYTE\[1\]\.B\.Q_WIRE\[3\]
*321 SLICE_16\[0\]\.RAM16\.SLICE\[0\]\.RAM8\.WORD\[1\]\.W\.BYTE\[1\]\.B\.Q_WIRE\[4\]
*322 SLICE_16\[0\]\.RAM16\.SLICE\[0\]\.RAM8\.WORD\[1\]\.W\.BYTE\[1\]\.B\.Q_WIRE\[5\]
*323 SLICE_16\[0\]\.RAM16\.SLICE\[0\]\.RAM8\.WORD\[1\]\.W\.BYTE\[1\]\.B\.Q_WIRE\[6\]
*324 SLICE_16\[0\]\.RAM16\.SLICE\[0\]\.RAM8\.WORD\[1\]\.W\.BYTE\[1\]\.B\.Q_WIRE\[7\]
*325 SLICE_16\[0\]\.RAM16\.SLICE\[0\]\.RAM8\.WORD\[1\]\.W\.BYTE\[1\]\.B\.SEL0_B
*326 SLICE_16\[0\]\.RAM16\.SLICE\[0\]\.RAM8\.WORD\[1\]\.W\.BYTE\[1\]\.B\.WE0_WIRE
*327 SLICE_16\[0\]\.RAM16\.SLICE\[0\]\.RAM8\.WORD\[1\]\.W\.BYTE\[2\]\.B\.CLK_B
*328 SLICE_16\[0\]\.RAM16\.SLICE\[0\]\.RAM8\.WORD\[1\]\.W\.BYTE\[2\]\.B\.GCLK
*329 SLICE_16\[0\]\.RAM16\.SLICE\[0\]\.RAM8\.WORD\[1\]\.W\.BYTE\[2\]\.B\.Q_WIRE\[0\]
*330 SLICE_16\[0\]\.RAM16\.SLICE\[0\]\.RAM8\.WORD\[1\]\.W\.BYTE\[2\]\.B\.Q_WIRE\[1\]
*331 SLICE_16\[0\]\.RAM16\.SLICE\[0\]\.RAM8\.WORD\[1\]\.W\.BYTE\[2\]\.B\.Q_WIRE\[2\]
*332 SLICE_16\[0\]\.RAM16\.SLICE\[0\]\.RAM8\.WORD\[1\]\.W\.BYTE\[2\]\.B\.Q_WIRE\[3\]
*333 SLICE_16\[0\]\.RAM16\.SLICE\[0\]\.RAM8\.WORD\[1\]\.W\.BYTE\[2\]\.B\.Q_WIRE\[4\]
*334 SLICE_16\[0\]\.RAM16\.SLICE\[0\]\.RAM8\.WORD\[1\]\.W\.BYTE\[2\]\.B\.Q_WIRE\[5\]
*335 SLICE_16\[0\]\.RAM16\.SLICE\[0\]\.RAM8\.WORD\[1\]\.W\.BYTE\[2\]\.B\.Q_WIRE\[6\]
*336 SLICE_16\[0\]\.RAM16\.SLICE\[0\]\.RAM8\.WORD\[1\]\.W\.BYTE\[2\]\.B\.Q_WIRE\[7\]
*337 SLICE_16\[0\]\.RAM16\.SLICE\[0\]\.RAM8\.WORD\[1\]\.W\.BYTE\[2\]\.B\.SEL0_B
*338 SLICE_16\[0\]\.RAM16\.SLICE\[0\]\.RAM8\.WORD\[1\]\.W\.BYTE\[2\]\.B\.WE0_WIRE
*339 SLICE_16\[0\]\.RAM16\.SLICE\[0\]\.RAM8\.WORD\[1\]\.W\.BYTE\[3\]\.B\.CLK_B
*340 SLICE_16\[0\]\.RAM16\.SLICE\[0\]\.RAM8\.WORD\[1\]\.W\.BYTE\[3\]\.B\.GCLK
*341 SLICE_16\[0\]\.RAM16\.SLICE\[0\]\.RAM8\.WORD\[1\]\.W\.BYTE\[3\]\.B\.Q_WIRE\[0\]
*342 SLICE_16\[0\]\.RAM16\.SLICE\[0\]\.RAM8\.WORD\[1\]\.W\.BYTE\[3\]\.B\.Q_WIRE\[1\]
*343 SLICE_16\[0\]\.RAM16\.SLICE\[0\]\.RAM8\.WORD\[1\]\.W\.BYTE\[3\]\.B\.Q_WIRE\[2\]
*344 SLICE_16\[0\]\.RAM16\.SLICE\[0\]\.RAM8\.WORD\[1\]\.W\.BYTE\[3\]\.B\.Q_WIRE\[3\]
*345 SLICE_16\[0\]\.RAM16\.SLICE\[0\]\.RAM8\.WORD\[1\]\.W\.BYTE\[3\]\.B\.Q_WIRE\[4\]
*346 SLICE_16\[0\]\.RAM16\.SLICE\[0\]\.RAM8\.WORD\[1\]\.W\.BYTE\[3\]\.B\.Q_WIRE\[5\]
*347 SLICE_16\[0\]\.RAM16\.SLICE\[0\]\.RAM8\.WORD\[1\]\.W\.BYTE\[3\]\.B\.Q_WIRE\[6\]
*348 SLICE_16\[0\]\.RAM16\.SLICE\[0\]\.RAM8\.WORD\[1\]\.W\.BYTE\[3\]\.B\.Q_WIRE\[7\]
*349 SLICE_16\[0\]\.RAM16\.SLICE\[0\]\.RAM8\.WORD\[1\]\.W\.BYTE\[3\]\.B\.SEL0_B
*350 SLICE_16\[0\]\.RAM16\.SLICE\[0\]\.RAM8\.WORD\[1\]\.W\.BYTE\[3\]\.B\.WE0_WIRE
*351 SLICE_16\[0\]\.RAM16\.SLICE\[0\]\.RAM8\.WORD\[1\]\.W\.SEL0
*352 SLICE_16\[0\]\.RAM16\.SLICE\[0\]\.RAM8\.WORD\[2\]\.W\.BYTE\[0\]\.B\.CLK
*353 SLICE_16\[0\]\.RAM16\.SLICE\[0\]\.RAM8\.WORD\[2\]\.W\.BYTE\[0\]\.B\.CLK_B
*354 SLICE_16\[0\]\.RAM16\.SLICE\[0\]\.RAM8\.WORD\[2\]\.W\.BYTE\[0\]\.B\.GCLK
*355 SLICE_16\[0\]\.RAM16\.SLICE\[0\]\.RAM8\.WORD\[2\]\.W\.BYTE\[0\]\.B\.Q_WIRE\[0\]
*356 SLICE_16\[0\]\.RAM16\.SLICE\[0\]\.RAM8\.WORD\[2\]\.W\.BYTE\[0\]\.B\.Q_WIRE\[1\]
*357 SLICE_16\[0\]\.RAM16\.SLICE\[0\]\.RAM8\.WORD\[2\]\.W\.BYTE\[0\]\.B\.Q_WIRE\[2\]
*358 SLICE_16\[0\]\.RAM16\.SLICE\[0\]\.RAM8\.WORD\[2\]\.W\.BYTE\[0\]\.B\.Q_WIRE\[3\]
*359 SLICE_16\[0\]\.RAM16\.SLICE\[0\]\.RAM8\.WORD\[2\]\.W\.BYTE\[0\]\.B\.Q_WIRE\[4\]
*360 SLICE_16\[0\]\.RAM16\.SLICE\[0\]\.RAM8\.WORD\[2\]\.W\.BYTE\[0\]\.B\.Q_WIRE\[5\]
*361 SLICE_16\[0\]\.RAM16\.SLICE\[0\]\.RAM8\.WORD\[2\]\.W\.BYTE\[0\]\.B\.Q_WIRE\[6\]
*362 SLICE_16\[0\]\.RAM16\.SLICE\[0\]\.RAM8\.WORD\[2\]\.W\.BYTE\[0\]\.B\.Q_WIRE\[7\]
*363 SLICE_16\[0\]\.RAM16\.SLICE\[0\]\.RAM8\.WORD\[2\]\.W\.BYTE\[0\]\.B\.SEL0
*364 SLICE_16\[0\]\.RAM16\.SLICE\[0\]\.RAM8\.WORD\[2\]\.W\.BYTE\[0\]\.B\.SEL0_B
*365 SLICE_16\[0\]\.RAM16\.SLICE\[0\]\.RAM8\.WORD\[2\]\.W\.BYTE\[0\]\.B\.WE0_WIRE
*366 SLICE_16\[0\]\.RAM16\.SLICE\[0\]\.RAM8\.WORD\[2\]\.W\.BYTE\[1\]\.B\.CLK_B
*367 SLICE_16\[0\]\.RAM16\.SLICE\[0\]\.RAM8\.WORD\[2\]\.W\.BYTE\[1\]\.B\.GCLK
*368 SLICE_16\[0\]\.RAM16\.SLICE\[0\]\.RAM8\.WORD\[2\]\.W\.BYTE\[1\]\.B\.Q_WIRE\[0\]
*369 SLICE_16\[0\]\.RAM16\.SLICE\[0\]\.RAM8\.WORD\[2\]\.W\.BYTE\[1\]\.B\.Q_WIRE\[1\]
*370 SLICE_16\[0\]\.RAM16\.SLICE\[0\]\.RAM8\.WORD\[2\]\.W\.BYTE\[1\]\.B\.Q_WIRE\[2\]
*371 SLICE_16\[0\]\.RAM16\.SLICE\[0\]\.RAM8\.WORD\[2\]\.W\.BYTE\[1\]\.B\.Q_WIRE\[3\]
*372 SLICE_16\[0\]\.RAM16\.SLICE\[0\]\.RAM8\.WORD\[2\]\.W\.BYTE\[1\]\.B\.Q_WIRE\[4\]
*373 SLICE_16\[0\]\.RAM16\.SLICE\[0\]\.RAM8\.WORD\[2\]\.W\.BYTE\[1\]\.B\.Q_WIRE\[5\]
*374 SLICE_16\[0\]\.RAM16\.SLICE\[0\]\.RAM8\.WORD\[2\]\.W\.BYTE\[1\]\.B\.Q_WIRE\[6\]
*375 SLICE_16\[0\]\.RAM16\.SLICE\[0\]\.RAM8\.WORD\[2\]\.W\.BYTE\[1\]\.B\.Q_WIRE\[7\]
*376 SLICE_16\[0\]\.RAM16\.SLICE\[0\]\.RAM8\.WORD\[2\]\.W\.BYTE\[1\]\.B\.SEL0_B
*377 SLICE_16\[0\]\.RAM16\.SLICE\[0\]\.RAM8\.WORD\[2\]\.W\.BYTE\[1\]\.B\.WE0_WIRE
*378 SLICE_16\[0\]\.RAM16\.SLICE\[0\]\.RAM8\.WORD\[2\]\.W\.BYTE\[2\]\.B\.CLK_B
*379 SLICE_16\[0\]\.RAM16\.SLICE\[0\]\.RAM8\.WORD\[2\]\.W\.BYTE\[2\]\.B\.GCLK
*380 SLICE_16\[0\]\.RAM16\.SLICE\[0\]\.RAM8\.WORD\[2\]\.W\.BYTE\[2\]\.B\.Q_WIRE\[0\]
*381 SLICE_16\[0\]\.RAM16\.SLICE\[0\]\.RAM8\.WORD\[2\]\.W\.BYTE\[2\]\.B\.Q_WIRE\[1\]
*382 SLICE_16\[0\]\.RAM16\.SLICE\[0\]\.RAM8\.WORD\[2\]\.W\.BYTE\[2\]\.B\.Q_WIRE\[2\]
*383 SLICE_16\[0\]\.RAM16\.SLICE\[0\]\.RAM8\.WORD\[2\]\.W\.BYTE\[2\]\.B\.Q_WIRE\[3\]
*384 SLICE_16\[0\]\.RAM16\.SLICE\[0\]\.RAM8\.WORD\[2\]\.W\.BYTE\[2\]\.B\.Q_WIRE\[4\]
*385 SLICE_16\[0\]\.RAM16\.SLICE\[0\]\.RAM8\.WORD\[2\]\.W\.BYTE\[2\]\.B\.Q_WIRE\[5\]
*386 SLICE_16\[0\]\.RAM16\.SLICE\[0\]\.RAM8\.WORD\[2\]\.W\.BYTE\[2\]\.B\.Q_WIRE\[6\]
*387 SLICE_16\[0\]\.RAM16\.SLICE\[0\]\.RAM8\.WORD\[2\]\.W\.BYTE\[2\]\.B\.Q_WIRE\[7\]
*388 SLICE_16\[0\]\.RAM16\.SLICE\[0\]\.RAM8\.WORD\[2\]\.W\.BYTE\[2\]\.B\.SEL0_B
*389 SLICE_16\[0\]\.RAM16\.SLICE\[0\]\.RAM8\.WORD\[2\]\.W\.BYTE\[2\]\.B\.WE0_WIRE
*390 SLICE_16\[0\]\.RAM16\.SLICE\[0\]\.RAM8\.WORD\[2\]\.W\.BYTE\[3\]\.B\.CLK_B
*391 SLICE_16\[0\]\.RAM16\.SLICE\[0\]\.RAM8\.WORD\[2\]\.W\.BYTE\[3\]\.B\.GCLK
*392 SLICE_16\[0\]\.RAM16\.SLICE\[0\]\.RAM8\.WORD\[2\]\.W\.BYTE\[3\]\.B\.Q_WIRE\[0\]
*393 SLICE_16\[0\]\.RAM16\.SLICE\[0\]\.RAM8\.WORD\[2\]\.W\.BYTE\[3\]\.B\.Q_WIRE\[1\]
*394 SLICE_16\[0\]\.RAM16\.SLICE\[0\]\.RAM8\.WORD\[2\]\.W\.BYTE\[3\]\.B\.Q_WIRE\[2\]
*395 SLICE_16\[0\]\.RAM16\.SLICE\[0\]\.RAM8\.WORD\[2\]\.W\.BYTE\[3\]\.B\.Q_WIRE\[3\]
*396 SLICE_16\[0\]\.RAM16\.SLICE\[0\]\.RAM8\.WORD\[2\]\.W\.BYTE\[3\]\.B\.Q_WIRE\[4\]
*397 SLICE_16\[0\]\.RAM16\.SLICE\[0\]\.RAM8\.WORD\[2\]\.W\.BYTE\[3\]\.B\.Q_WIRE\[5\]
*398 SLICE_16\[0\]\.RAM16\.SLICE\[0\]\.RAM8\.WORD\[2\]\.W\.BYTE\[3\]\.B\.Q_WIRE\[6\]
*399 SLICE_16\[0\]\.RAM16\.SLICE\[0\]\.RAM8\.WORD\[2\]\.W\.BYTE\[3\]\.B\.Q_WIRE\[7\]
*400 SLICE_16\[0\]\.RAM16\.SLICE\[0\]\.RAM8\.WORD\[2\]\.W\.BYTE\[3\]\.B\.SEL0_B
*401 SLICE_16\[0\]\.RAM16\.SLICE\[0\]\.RAM8\.WORD\[2\]\.W\.BYTE\[3\]\.B\.WE0_WIRE
*402 SLICE_16\[0\]\.RAM16\.SLICE\[0\]\.RAM8\.WORD\[2\]\.W\.SEL0
*403 SLICE_16\[0\]\.RAM16\.SLICE\[0\]\.RAM8\.WORD\[3\]\.W\.BYTE\[0\]\.B\.CLK
*404 SLICE_16\[0\]\.RAM16\.SLICE\[0\]\.RAM8\.WORD\[3\]\.W\.BYTE\[0\]\.B\.CLK_B
*405 SLICE_16\[0\]\.RAM16\.SLICE\[0\]\.RAM8\.WORD\[3\]\.W\.BYTE\[0\]\.B\.GCLK
*406 SLICE_16\[0\]\.RAM16\.SLICE\[0\]\.RAM8\.WORD\[3\]\.W\.BYTE\[0\]\.B\.Q_WIRE\[0\]
*407 SLICE_16\[0\]\.RAM16\.SLICE\[0\]\.RAM8\.WORD\[3\]\.W\.BYTE\[0\]\.B\.Q_WIRE\[1\]
*408 SLICE_16\[0\]\.RAM16\.SLICE\[0\]\.RAM8\.WORD\[3\]\.W\.BYTE\[0\]\.B\.Q_WIRE\[2\]
*409 SLICE_16\[0\]\.RAM16\.SLICE\[0\]\.RAM8\.WORD\[3\]\.W\.BYTE\[0\]\.B\.Q_WIRE\[3\]
*410 SLICE_16\[0\]\.RAM16\.SLICE\[0\]\.RAM8\.WORD\[3\]\.W\.BYTE\[0\]\.B\.Q_WIRE\[4\]
*411 SLICE_16\[0\]\.RAM16\.SLICE\[0\]\.RAM8\.WORD\[3\]\.W\.BYTE\[0\]\.B\.Q_WIRE\[5\]
*412 SLICE_16\[0\]\.RAM16\.SLICE\[0\]\.RAM8\.WORD\[3\]\.W\.BYTE\[0\]\.B\.Q_WIRE\[6\]
*413 SLICE_16\[0\]\.RAM16\.SLICE\[0\]\.RAM8\.WORD\[3\]\.W\.BYTE\[0\]\.B\.Q_WIRE\[7\]
*414 SLICE_16\[0\]\.RAM16\.SLICE\[0\]\.RAM8\.WORD\[3\]\.W\.BYTE\[0\]\.B\.SEL0
*415 SLICE_16\[0\]\.RAM16\.SLICE\[0\]\.RAM8\.WORD\[3\]\.W\.BYTE\[0\]\.B\.SEL0_B
*416 SLICE_16\[0\]\.RAM16\.SLICE\[0\]\.RAM8\.WORD\[3\]\.W\.BYTE\[0\]\.B\.WE0_WIRE
*417 SLICE_16\[0\]\.RAM16\.SLICE\[0\]\.RAM8\.WORD\[3\]\.W\.BYTE\[1\]\.B\.CLK_B
*418 SLICE_16\[0\]\.RAM16\.SLICE\[0\]\.RAM8\.WORD\[3\]\.W\.BYTE\[1\]\.B\.GCLK
*419 SLICE_16\[0\]\.RAM16\.SLICE\[0\]\.RAM8\.WORD\[3\]\.W\.BYTE\[1\]\.B\.Q_WIRE\[0\]
*420 SLICE_16\[0\]\.RAM16\.SLICE\[0\]\.RAM8\.WORD\[3\]\.W\.BYTE\[1\]\.B\.Q_WIRE\[1\]
*421 SLICE_16\[0\]\.RAM16\.SLICE\[0\]\.RAM8\.WORD\[3\]\.W\.BYTE\[1\]\.B\.Q_WIRE\[2\]
*422 SLICE_16\[0\]\.RAM16\.SLICE\[0\]\.RAM8\.WORD\[3\]\.W\.BYTE\[1\]\.B\.Q_WIRE\[3\]
*423 SLICE_16\[0\]\.RAM16\.SLICE\[0\]\.RAM8\.WORD\[3\]\.W\.BYTE\[1\]\.B\.Q_WIRE\[4\]
*424 SLICE_16\[0\]\.RAM16\.SLICE\[0\]\.RAM8\.WORD\[3\]\.W\.BYTE\[1\]\.B\.Q_WIRE\[5\]
*425 SLICE_16\[0\]\.RAM16\.SLICE\[0\]\.RAM8\.WORD\[3\]\.W\.BYTE\[1\]\.B\.Q_WIRE\[6\]
*426 SLICE_16\[0\]\.RAM16\.SLICE\[0\]\.RAM8\.WORD\[3\]\.W\.BYTE\[1\]\.B\.Q_WIRE\[7\]
*427 SLICE_16\[0\]\.RAM16\.SLICE\[0\]\.RAM8\.WORD\[3\]\.W\.BYTE\[1\]\.B\.SEL0_B
*428 SLICE_16\[0\]\.RAM16\.SLICE\[0\]\.RAM8\.WORD\[3\]\.W\.BYTE\[1\]\.B\.WE0_WIRE
*429 SLICE_16\[0\]\.RAM16\.SLICE\[0\]\.RAM8\.WORD\[3\]\.W\.BYTE\[2\]\.B\.CLK_B
*430 SLICE_16\[0\]\.RAM16\.SLICE\[0\]\.RAM8\.WORD\[3\]\.W\.BYTE\[2\]\.B\.GCLK
*431 SLICE_16\[0\]\.RAM16\.SLICE\[0\]\.RAM8\.WORD\[3\]\.W\.BYTE\[2\]\.B\.Q_WIRE\[0\]
*432 SLICE_16\[0\]\.RAM16\.SLICE\[0\]\.RAM8\.WORD\[3\]\.W\.BYTE\[2\]\.B\.Q_WIRE\[1\]
*433 SLICE_16\[0\]\.RAM16\.SLICE\[0\]\.RAM8\.WORD\[3\]\.W\.BYTE\[2\]\.B\.Q_WIRE\[2\]
*434 SLICE_16\[0\]\.RAM16\.SLICE\[0\]\.RAM8\.WORD\[3\]\.W\.BYTE\[2\]\.B\.Q_WIRE\[3\]
*435 SLICE_16\[0\]\.RAM16\.SLICE\[0\]\.RAM8\.WORD\[3\]\.W\.BYTE\[2\]\.B\.Q_WIRE\[4\]
*436 SLICE_16\[0\]\.RAM16\.SLICE\[0\]\.RAM8\.WORD\[3\]\.W\.BYTE\[2\]\.B\.Q_WIRE\[5\]
*437 SLICE_16\[0\]\.RAM16\.SLICE\[0\]\.RAM8\.WORD\[3\]\.W\.BYTE\[2\]\.B\.Q_WIRE\[6\]
*438 SLICE_16\[0\]\.RAM16\.SLICE\[0\]\.RAM8\.WORD\[3\]\.W\.BYTE\[2\]\.B\.Q_WIRE\[7\]
*439 SLICE_16\[0\]\.RAM16\.SLICE\[0\]\.RAM8\.WORD\[3\]\.W\.BYTE\[2\]\.B\.SEL0_B
*440 SLICE_16\[0\]\.RAM16\.SLICE\[0\]\.RAM8\.WORD\[3\]\.W\.BYTE\[2\]\.B\.WE0_WIRE
*441 SLICE_16\[0\]\.RAM16\.SLICE\[0\]\.RAM8\.WORD\[3\]\.W\.BYTE\[3\]\.B\.CLK_B
*442 SLICE_16\[0\]\.RAM16\.SLICE\[0\]\.RAM8\.WORD\[3\]\.W\.BYTE\[3\]\.B\.GCLK
*443 SLICE_16\[0\]\.RAM16\.SLICE\[0\]\.RAM8\.WORD\[3\]\.W\.BYTE\[3\]\.B\.Q_WIRE\[0\]
*444 SLICE_16\[0\]\.RAM16\.SLICE\[0\]\.RAM8\.WORD\[3\]\.W\.BYTE\[3\]\.B\.Q_WIRE\[1\]
*445 SLICE_16\[0\]\.RAM16\.SLICE\[0\]\.RAM8\.WORD\[3\]\.W\.BYTE\[3\]\.B\.Q_WIRE\[2\]
*446 SLICE_16\[0\]\.RAM16\.SLICE\[0\]\.RAM8\.WORD\[3\]\.W\.BYTE\[3\]\.B\.Q_WIRE\[3\]
*447 SLICE_16\[0\]\.RAM16\.SLICE\[0\]\.RAM8\.WORD\[3\]\.W\.BYTE\[3\]\.B\.Q_WIRE\[4\]
*448 SLICE_16\[0\]\.RAM16\.SLICE\[0\]\.RAM8\.WORD\[3\]\.W\.BYTE\[3\]\.B\.Q_WIRE\[5\]
*449 SLICE_16\[0\]\.RAM16\.SLICE\[0\]\.RAM8\.WORD\[3\]\.W\.BYTE\[3\]\.B\.Q_WIRE\[6\]
*450 SLICE_16\[0\]\.RAM16\.SLICE\[0\]\.RAM8\.WORD\[3\]\.W\.BYTE\[3\]\.B\.Q_WIRE\[7\]
*451 SLICE_16\[0\]\.RAM16\.SLICE\[0\]\.RAM8\.WORD\[3\]\.W\.BYTE\[3\]\.B\.SEL0_B
*452 SLICE_16\[0\]\.RAM16\.SLICE\[0\]\.RAM8\.WORD\[3\]\.W\.BYTE\[3\]\.B\.WE0_WIRE
*453 SLICE_16\[0\]\.RAM16\.SLICE\[0\]\.RAM8\.WORD\[3\]\.W\.SEL0
*454 SLICE_16\[0\]\.RAM16\.SLICE\[0\]\.RAM8\.WORD\[4\]\.W\.BYTE\[0\]\.B\.CLK
*455 SLICE_16\[0\]\.RAM16\.SLICE\[0\]\.RAM8\.WORD\[4\]\.W\.BYTE\[0\]\.B\.CLK_B
*456 SLICE_16\[0\]\.RAM16\.SLICE\[0\]\.RAM8\.WORD\[4\]\.W\.BYTE\[0\]\.B\.GCLK
*457 SLICE_16\[0\]\.RAM16\.SLICE\[0\]\.RAM8\.WORD\[4\]\.W\.BYTE\[0\]\.B\.Q_WIRE\[0\]
*458 SLICE_16\[0\]\.RAM16\.SLICE\[0\]\.RAM8\.WORD\[4\]\.W\.BYTE\[0\]\.B\.Q_WIRE\[1\]
*459 SLICE_16\[0\]\.RAM16\.SLICE\[0\]\.RAM8\.WORD\[4\]\.W\.BYTE\[0\]\.B\.Q_WIRE\[2\]
*460 SLICE_16\[0\]\.RAM16\.SLICE\[0\]\.RAM8\.WORD\[4\]\.W\.BYTE\[0\]\.B\.Q_WIRE\[3\]
*461 SLICE_16\[0\]\.RAM16\.SLICE\[0\]\.RAM8\.WORD\[4\]\.W\.BYTE\[0\]\.B\.Q_WIRE\[4\]
*462 SLICE_16\[0\]\.RAM16\.SLICE\[0\]\.RAM8\.WORD\[4\]\.W\.BYTE\[0\]\.B\.Q_WIRE\[5\]
*463 SLICE_16\[0\]\.RAM16\.SLICE\[0\]\.RAM8\.WORD\[4\]\.W\.BYTE\[0\]\.B\.Q_WIRE\[6\]
*464 SLICE_16\[0\]\.RAM16\.SLICE\[0\]\.RAM8\.WORD\[4\]\.W\.BYTE\[0\]\.B\.Q_WIRE\[7\]
*465 SLICE_16\[0\]\.RAM16\.SLICE\[0\]\.RAM8\.WORD\[4\]\.W\.BYTE\[0\]\.B\.SEL0
*466 SLICE_16\[0\]\.RAM16\.SLICE\[0\]\.RAM8\.WORD\[4\]\.W\.BYTE\[0\]\.B\.SEL0_B
*467 SLICE_16\[0\]\.RAM16\.SLICE\[0\]\.RAM8\.WORD\[4\]\.W\.BYTE\[0\]\.B\.WE0_WIRE
*468 SLICE_16\[0\]\.RAM16\.SLICE\[0\]\.RAM8\.WORD\[4\]\.W\.BYTE\[1\]\.B\.CLK_B
*469 SLICE_16\[0\]\.RAM16\.SLICE\[0\]\.RAM8\.WORD\[4\]\.W\.BYTE\[1\]\.B\.GCLK
*470 SLICE_16\[0\]\.RAM16\.SLICE\[0\]\.RAM8\.WORD\[4\]\.W\.BYTE\[1\]\.B\.Q_WIRE\[0\]
*471 SLICE_16\[0\]\.RAM16\.SLICE\[0\]\.RAM8\.WORD\[4\]\.W\.BYTE\[1\]\.B\.Q_WIRE\[1\]
*472 SLICE_16\[0\]\.RAM16\.SLICE\[0\]\.RAM8\.WORD\[4\]\.W\.BYTE\[1\]\.B\.Q_WIRE\[2\]
*473 SLICE_16\[0\]\.RAM16\.SLICE\[0\]\.RAM8\.WORD\[4\]\.W\.BYTE\[1\]\.B\.Q_WIRE\[3\]
*474 SLICE_16\[0\]\.RAM16\.SLICE\[0\]\.RAM8\.WORD\[4\]\.W\.BYTE\[1\]\.B\.Q_WIRE\[4\]
*475 SLICE_16\[0\]\.RAM16\.SLICE\[0\]\.RAM8\.WORD\[4\]\.W\.BYTE\[1\]\.B\.Q_WIRE\[5\]
*476 SLICE_16\[0\]\.RAM16\.SLICE\[0\]\.RAM8\.WORD\[4\]\.W\.BYTE\[1\]\.B\.Q_WIRE\[6\]
*477 SLICE_16\[0\]\.RAM16\.SLICE\[0\]\.RAM8\.WORD\[4\]\.W\.BYTE\[1\]\.B\.Q_WIRE\[7\]
*478 SLICE_16\[0\]\.RAM16\.SLICE\[0\]\.RAM8\.WORD\[4\]\.W\.BYTE\[1\]\.B\.SEL0_B
*479 SLICE_16\[0\]\.RAM16\.SLICE\[0\]\.RAM8\.WORD\[4\]\.W\.BYTE\[1\]\.B\.WE0_WIRE
*480 SLICE_16\[0\]\.RAM16\.SLICE\[0\]\.RAM8\.WORD\[4\]\.W\.BYTE\[2\]\.B\.CLK_B
*481 SLICE_16\[0\]\.RAM16\.SLICE\[0\]\.RAM8\.WORD\[4\]\.W\.BYTE\[2\]\.B\.GCLK
*482 SLICE_16\[0\]\.RAM16\.SLICE\[0\]\.RAM8\.WORD\[4\]\.W\.BYTE\[2\]\.B\.Q_WIRE\[0\]
*483 SLICE_16\[0\]\.RAM16\.SLICE\[0\]\.RAM8\.WORD\[4\]\.W\.BYTE\[2\]\.B\.Q_WIRE\[1\]
*484 SLICE_16\[0\]\.RAM16\.SLICE\[0\]\.RAM8\.WORD\[4\]\.W\.BYTE\[2\]\.B\.Q_WIRE\[2\]
*485 SLICE_16\[0\]\.RAM16\.SLICE\[0\]\.RAM8\.WORD\[4\]\.W\.BYTE\[2\]\.B\.Q_WIRE\[3\]
*486 SLICE_16\[0\]\.RAM16\.SLICE\[0\]\.RAM8\.WORD\[4\]\.W\.BYTE\[2\]\.B\.Q_WIRE\[4\]
*487 SLICE_16\[0\]\.RAM16\.SLICE\[0\]\.RAM8\.WORD\[4\]\.W\.BYTE\[2\]\.B\.Q_WIRE\[5\]
*488 SLICE_16\[0\]\.RAM16\.SLICE\[0\]\.RAM8\.WORD\[4\]\.W\.BYTE\[2\]\.B\.Q_WIRE\[6\]
*489 SLICE_16\[0\]\.RAM16\.SLICE\[0\]\.RAM8\.WORD\[4\]\.W\.BYTE\[2\]\.B\.Q_WIRE\[7\]
*490 SLICE_16\[0\]\.RAM16\.SLICE\[0\]\.RAM8\.WORD\[4\]\.W\.BYTE\[2\]\.B\.SEL0_B
*491 SLICE_16\[0\]\.RAM16\.SLICE\[0\]\.RAM8\.WORD\[4\]\.W\.BYTE\[2\]\.B\.WE0_WIRE
*492 SLICE_16\[0\]\.RAM16\.SLICE\[0\]\.RAM8\.WORD\[4\]\.W\.BYTE\[3\]\.B\.CLK_B
*493 SLICE_16\[0\]\.RAM16\.SLICE\[0\]\.RAM8\.WORD\[4\]\.W\.BYTE\[3\]\.B\.GCLK
*494 SLICE_16\[0\]\.RAM16\.SLICE\[0\]\.RAM8\.WORD\[4\]\.W\.BYTE\[3\]\.B\.Q_WIRE\[0\]
*495 SLICE_16\[0\]\.RAM16\.SLICE\[0\]\.RAM8\.WORD\[4\]\.W\.BYTE\[3\]\.B\.Q_WIRE\[1\]
*496 SLICE_16\[0\]\.RAM16\.SLICE\[0\]\.RAM8\.WORD\[4\]\.W\.BYTE\[3\]\.B\.Q_WIRE\[2\]
*497 SLICE_16\[0\]\.RAM16\.SLICE\[0\]\.RAM8\.WORD\[4\]\.W\.BYTE\[3\]\.B\.Q_WIRE\[3\]
*498 SLICE_16\[0\]\.RAM16\.SLICE\[0\]\.RAM8\.WORD\[4\]\.W\.BYTE\[3\]\.B\.Q_WIRE\[4\]
*499 SLICE_16\[0\]\.RAM16\.SLICE\[0\]\.RAM8\.WORD\[4\]\.W\.BYTE\[3\]\.B\.Q_WIRE\[5\]
*500 SLICE_16\[0\]\.RAM16\.SLICE\[0\]\.RAM8\.WORD\[4\]\.W\.BYTE\[3\]\.B\.Q_WIRE\[6\]
*501 SLICE_16\[0\]\.RAM16\.SLICE\[0\]\.RAM8\.WORD\[4\]\.W\.BYTE\[3\]\.B\.Q_WIRE\[7\]
*502 SLICE_16\[0\]\.RAM16\.SLICE\[0\]\.RAM8\.WORD\[4\]\.W\.BYTE\[3\]\.B\.SEL0_B
*503 SLICE_16\[0\]\.RAM16\.SLICE\[0\]\.RAM8\.WORD\[4\]\.W\.BYTE\[3\]\.B\.WE0_WIRE
*504 SLICE_16\[0\]\.RAM16\.SLICE\[0\]\.RAM8\.WORD\[4\]\.W\.SEL0
*505 SLICE_16\[0\]\.RAM16\.SLICE\[0\]\.RAM8\.WORD\[5\]\.W\.BYTE\[0\]\.B\.CLK
*506 SLICE_16\[0\]\.RAM16\.SLICE\[0\]\.RAM8\.WORD\[5\]\.W\.BYTE\[0\]\.B\.CLK_B
*507 SLICE_16\[0\]\.RAM16\.SLICE\[0\]\.RAM8\.WORD\[5\]\.W\.BYTE\[0\]\.B\.GCLK
*508 SLICE_16\[0\]\.RAM16\.SLICE\[0\]\.RAM8\.WORD\[5\]\.W\.BYTE\[0\]\.B\.Q_WIRE\[0\]
*509 SLICE_16\[0\]\.RAM16\.SLICE\[0\]\.RAM8\.WORD\[5\]\.W\.BYTE\[0\]\.B\.Q_WIRE\[1\]
*510 SLICE_16\[0\]\.RAM16\.SLICE\[0\]\.RAM8\.WORD\[5\]\.W\.BYTE\[0\]\.B\.Q_WIRE\[2\]
*511 SLICE_16\[0\]\.RAM16\.SLICE\[0\]\.RAM8\.WORD\[5\]\.W\.BYTE\[0\]\.B\.Q_WIRE\[3\]
*512 SLICE_16\[0\]\.RAM16\.SLICE\[0\]\.RAM8\.WORD\[5\]\.W\.BYTE\[0\]\.B\.Q_WIRE\[4\]
*513 SLICE_16\[0\]\.RAM16\.SLICE\[0\]\.RAM8\.WORD\[5\]\.W\.BYTE\[0\]\.B\.Q_WIRE\[5\]
*514 SLICE_16\[0\]\.RAM16\.SLICE\[0\]\.RAM8\.WORD\[5\]\.W\.BYTE\[0\]\.B\.Q_WIRE\[6\]
*515 SLICE_16\[0\]\.RAM16\.SLICE\[0\]\.RAM8\.WORD\[5\]\.W\.BYTE\[0\]\.B\.Q_WIRE\[7\]
*516 SLICE_16\[0\]\.RAM16\.SLICE\[0\]\.RAM8\.WORD\[5\]\.W\.BYTE\[0\]\.B\.SEL0
*517 SLICE_16\[0\]\.RAM16\.SLICE\[0\]\.RAM8\.WORD\[5\]\.W\.BYTE\[0\]\.B\.SEL0_B
*518 SLICE_16\[0\]\.RAM16\.SLICE\[0\]\.RAM8\.WORD\[5\]\.W\.BYTE\[0\]\.B\.WE0_WIRE
*519 SLICE_16\[0\]\.RAM16\.SLICE\[0\]\.RAM8\.WORD\[5\]\.W\.BYTE\[1\]\.B\.CLK_B
*520 SLICE_16\[0\]\.RAM16\.SLICE\[0\]\.RAM8\.WORD\[5\]\.W\.BYTE\[1\]\.B\.GCLK
*521 SLICE_16\[0\]\.RAM16\.SLICE\[0\]\.RAM8\.WORD\[5\]\.W\.BYTE\[1\]\.B\.Q_WIRE\[0\]
*522 SLICE_16\[0\]\.RAM16\.SLICE\[0\]\.RAM8\.WORD\[5\]\.W\.BYTE\[1\]\.B\.Q_WIRE\[1\]
*523 SLICE_16\[0\]\.RAM16\.SLICE\[0\]\.RAM8\.WORD\[5\]\.W\.BYTE\[1\]\.B\.Q_WIRE\[2\]
*524 SLICE_16\[0\]\.RAM16\.SLICE\[0\]\.RAM8\.WORD\[5\]\.W\.BYTE\[1\]\.B\.Q_WIRE\[3\]
*525 SLICE_16\[0\]\.RAM16\.SLICE\[0\]\.RAM8\.WORD\[5\]\.W\.BYTE\[1\]\.B\.Q_WIRE\[4\]
*526 SLICE_16\[0\]\.RAM16\.SLICE\[0\]\.RAM8\.WORD\[5\]\.W\.BYTE\[1\]\.B\.Q_WIRE\[5\]
*527 SLICE_16\[0\]\.RAM16\.SLICE\[0\]\.RAM8\.WORD\[5\]\.W\.BYTE\[1\]\.B\.Q_WIRE\[6\]